13
seed1
C       4.919024   -2.840000   -0.500000
C       4.919024   -4.260000   -0.500000
C       6.148780   -4.970000   -0.500000
C       6.148780   -6.390000   -0.500000
C       4.919024   -7.100000   -0.500000
C       3.689268   -2.130000   -0.500000
C       2.459512   -2.840000   -0.500000
C       2.459512   -4.260000   -0.500000
C       3.689268   -4.970000   -0.500000
C       3.689268   -6.390000   -0.500000
C       2.459512   -7.100000   -0.500000
C       1.229756   -4.970000   -0.500000
C       1.229756   -6.390000   -0.500000
